Circuit: * C:\Users\PC\Documents\GitHub\Binary_Multiplier_SIMULINK\Delay_Power_Diss\32nm\AMA1\AMA1_45nm.asc

WARNING: Node N008 is floating.
WARNING: Node N002 is floating.
WARNING: Node NC_02 is floating.
WARNING: Node N003 is floating.
WARNING: Node N004 is floating.

WARNING: Less than two connections to node NC_01.  This node is used by M1.
WARNING: Less than two connections to node N008.  This node is used by M8.
WARNING: Less than two connections to node N002.  This node is used by M11.
WARNING: Less than two connections to node NC_02.  This node is used by M15.
WARNING: Less than two connections to node NC_03.  This node is used by M14.
WARNING: Less than two connections to node N003.  This node is used by M3.
WARNING: Less than two connections to node N004.  This node is used by M4.
Direct Newton iteration for .op point succeeded.

Date: Tue Feb 08 17:43:44 2022
Total elapsed time: 0.144 seconds.

tnom = 27
temp = 27
method = modified trap
totiter = 3096
traniter = 3058
tranpoints = 1281
accept = 1224
rejected = 57
matrix size = 87
fillins = 22
solver = Normal
Matrix Compiler1: 12.29 KB object code size  2.0/0.9/[0.6]
Matrix Compiler2: 11.07 KB object code size  0.8/1.0/[0.5]

