Circuit: * C:\Users\PC\Documents\GitHub\Binary_Multiplier_SIMULINK\Delay_Power_Diss\32nm\InXA1\InXA1_32nm.asc

WARNING: Node N004 is floating.
WARNING: Node N005 is floating.

WARNING: Less than two connections to node N004.  This node is used by M2.
WARNING: Less than two connections to node N005.  This node is used by M6.
Direct Newton iteration for .op point succeeded.

Date: Wed Feb 16 14:33:44 2022
Total elapsed time: 0.075 seconds.

tnom = 27
temp = 27
method = modified trap
totiter = 2798
traniter = 2769
tranpoints = 1224
accept = 1175
rejected = 49
matrix size = 37
fillins = 6
solver = Normal
Matrix Compiler1: 4.45 KB object code size  0.8/0.3/[0.2]
Matrix Compiler2: 4.50 KB object code size  0.3/0.4/[0.2]

