Circuit: * C:\Users\PC\Documents\GitHub\Binary_Multiplier_SIMULINK\Delay_Power_Diss\22nm\AMA3\AMA3_22nm.asc

WARNING: Node N001 is floating.
WARNING: Node N002 is floating.
WARNING: Node N005 is floating.
WARNING: Node N006 is floating.
WARNING: Node N010 is floating.
WARNING: Node N011 is floating.
WARNING: Node N007 is floating.
WARNING: Node N008 is floating.

WARNING: Less than two connections to node N001.  This node is used by M12.
WARNING: Less than two connections to node N002.  This node is used by M4.
WARNING: Less than two connections to node N005.  This node is used by M8.
WARNING: Less than two connections to node N006.  This node is used by M9.
WARNING: Less than two connections to node N010.  This node is used by M1.
WARNING: Less than two connections to node N011.  This node is used by M2.
WARNING: Less than two connections to node N007.  This node is used by M5.
WARNING: Less than two connections to node N008.  This node is used by M6.
Direct Newton iteration for .op point succeeded.

Date: Wed Feb 16 14:48:48 2022
Total elapsed time: 0.110 seconds.

tnom = 27
temp = 27
method = modified trap
totiter = 3299
traniter = 3258
tranpoints = 1227
accept = 1183
rejected = 44
matrix size = 66
fillins = 22
solver = Normal
Matrix Compiler1: 9.35 KB object code size  1.4/0.6/[0.5]
Matrix Compiler2: 8.26 KB object code size  0.6/0.7/[0.4]

