Circuit: * C:\Users\PC\Documents\GitHub\Binary_Multiplier_SIMULINK\Delay_Power_Diss\28nm\AMA3\AMA3_45nm.asc

WARNING: Node N010 is floating.
WARNING: Node N011 is floating.
WARNING: Node N007 is floating.
WARNING: Node N008 is floating.
WARNING: Node N005 is floating.
WARNING: Node N006 is floating.
WARNING: Node N002 is floating.
WARNING: Node N001 is floating.
WARNING: Node NC_01 is floating.

WARNING: Less than two connections to node N010.  This node is used by M1.
WARNING: Less than two connections to node N011.  This node is used by M2.
WARNING: Less than two connections to node N007.  This node is used by M5.
WARNING: Less than two connections to node N008.  This node is used by M6.
WARNING: Less than two connections to node N005.  This node is used by M7.
WARNING: Less than two connections to node N006.  This node is used by M8.
WARNING: Less than two connections to node N002.  This node is used by M11.
WARNING: Less than two connections to node N001.  This node is used by M12.
WARNING: Less than two connections to node NC_01.  This node is used by M15.
Direct Newton iteration for .op point succeeded.

Date: Tue Feb 08 02:43:12 2022
Total elapsed time: 0.101 seconds.

tnom = 27
temp = 27
method = modified trap
totiter = 3324
traniter = 3286
tranpoints = 1313
accept = 1248
rejected = 65
matrix size = 67
fillins = 34
solver = Normal
Matrix Compiler1: 10.34 KB object code size  1.6/0.7/[0.6]
Matrix Compiler2: 8.50 KB object code size  0.6/0.7/[0.5]

