Circuit: * C:\Users\PC\Documents\GitHub\Binary_Multiplier_SIMULINK\Delay_Power_Diss\22nm\XA12T\XA12T_32nm.asc

WARNING: Node N005 is floating.
WARNING: Node N008 is floating.

WARNING: Less than two connections to node N005.  This node is used by M8.
WARNING: Less than two connections to node N008.  This node is used by M12.
Direct Newton iteration for .op point succeeded.

Date: Tue Mar 08 01:37:04 2022
Total elapsed time: 0.119 seconds.

tnom = 27
temp = 27
method = modified trap
totiter = 3008
traniter = 2984
tranpoints = 1245
accept = 1196
rejected = 49
matrix size = 65
fillins = 2
solver = Normal
Matrix Compiler1: 8.46 KB object code size  1.3/0.6/[0.5]
Matrix Compiler2: 8.09 KB object code size  0.5/0.7/[0.4]

