Circuit: * C:\Users\PC\Documents\GitHub\Binary_Multiplier_SIMULINK\Delay_Power_Diss\22nm\XA12T\XA12T_32nm.asc

WARNING: Node N001 is floating.
WARNING: Node N006 is floating.
WARNING: Node N009 is floating.

WARNING: Less than two connections to node N006.  This node is used by M8.
WARNING: Less than two connections to node N009.  This node is used by M12.
Direct Newton iteration for .op point succeeded.

Date: Mon Mar 07 14:23:08 2022
Total elapsed time: 0.130 seconds.

tnom = 27
temp = 27
method = modified trap
totiter = 2985
traniter = 2957
tranpoints = 1245
accept = 1196
rejected = 49
matrix size = 66
fillins = 14
solver = Normal
Matrix Compiler1: 9.52 KB object code size  1.4/0.6/[0.5]
Matrix Compiler2: 8.33 KB object code size  0.5/0.7/[0.4]

