Circuit: * C:\Users\PC\Documents\GitHub\Binary_Multiplier_SIMULINK\Delay_Power_Diss\22nm\XA12T\XA12T_45nm.asc

WARNING: Node N012 is floating.
WARNING: Node N009 is floating.
WARNING: Node N007 is floating.
WARNING: Node N004 is floating.
WARNING: Node N017 is floating.
WARNING: Node N018 is floating.
WARNING: Node N015 is floating.
WARNING: Node N013 is floating.
WARNING: Node N016 is floating.
WARNING: Node N003 is floating.

WARNING: Less than two connections to node N012.  This node is used by M1.
WARNING: Less than two connections to node N009.  This node is used by M8.
WARNING: Less than two connections to node N007.  This node is used by M20.
WARNING: Less than two connections to node N004.  This node is used by M4.
WARNING: Less than two connections to node N017.  This node is used by M6.
WARNING: Less than two connections to node N018.  This node is used by M9.
WARNING: Less than two connections to node N015.  This node is used by M10.
WARNING: Less than two connections to node N013.  This node is used by M12.
WARNING: Less than two connections to node N016.  This node is used by M16.
WARNING: Less than two connections to node N003.  This node is used by M22.
Direct Newton iteration for .op point succeeded.

Date: Sat Apr 02 13:49:00 2022
Total elapsed time: 0.151 seconds.

tnom = 27
temp = 27
method = modified trap
totiter = 3147
traniter = 3111
tranpoints = 1217
accept = 1179
rejected = 38
matrix size = 117
fillins = 54
solver = Normal
Thread vector: 22.3/14.7[2] 3.4/2.9[2] 1.5/1.2[2] 0.4/0.5[1]  2592/500
Matrix Compiler1: 18.32 KB object code size  4.5/1.2/[0.9]
Matrix Compiler2: 15.26 KB object code size  1.1/1.2/[0.7]

