Circuit: * C:\Users\PC\Documents\GitHub\Binary_Multiplier_SIMULINK\Delay_Power_Diss\32nm\InXA2\InXA2_32nm.asc

Fatal Error: Voltage source V§A and voltage source V§B are paralleled making an over-defined circuit matrix.
You will need to correct the circuit or add some series resistance.
