Circuit: * C:\Users\PC\Documents\GitHub\Binary_Multiplier_SIMULINK\Delay_Power_Diss\32nm\InXA2\InXA2_32nm.asc

WARNING: Node N001 is floating.
WARNING: Node N004 is floating.

WARNING: Less than two connections to node N001.  This node is used by M1.
WARNING: Less than two connections to node N004.  This node is used by M2.
Direct Newton iteration for .op point succeeded.

Date: Wed Feb 16 14:10:37 2022
Total elapsed time: 0.112 seconds.

tnom = 27
temp = 27
method = modified trap
totiter = 3034
traniter = 3004
tranpoints = 1248
accept = 1197
rejected = 51
matrix size = 46
fillins = 2
solver = Normal
Matrix Compiler1: 5.41 KB object code size  0.9/0.4/[0.3]
Matrix Compiler2: 5.70 KB object code size  0.4/0.5/[0.3]

