Circuit: * C:\Users\PC\Documents\GitHub\Binary_Multiplier_SIMULINK\Delay_Power_Diss\45nm\AMA3\AMA3_45nm.asc

WARNING: Node N010 is floating.
WARNING: Node N001 is floating.
WARNING: Node N011 is floating.
WARNING: Node N007 is floating.
WARNING: Node N008 is floating.
WARNING: Node N002 is floating.
WARNING: Node N005 is floating.
WARNING: Node N006 is floating.

WARNING: Less than two connections to node N010.  This node is used by M1.
WARNING: Less than two connections to node N001.  This node is used by M12.
WARNING: Less than two connections to node N011.  This node is used by M3.
WARNING: Less than two connections to node N007.  This node is used by M4.
WARNING: Less than two connections to node N008.  This node is used by M5.
WARNING: Less than two connections to node N002.  This node is used by M7.
WARNING: Less than two connections to node N005.  This node is used by M9.
WARNING: Less than two connections to node N006.  This node is used by M10.
Direct Newton iteration for .op point succeeded.

Date: Thu Feb 17 11:36:25 2022
Total elapsed time: 0.109 seconds.

tnom = 27
temp = 27
method = modified trap
totiter = 3275
traniter = 3227
tranpoints = 1237
accept = 1194
rejected = 43
matrix size = 66
fillins = 22
solver = Normal
Matrix Compiler1: 9.38 KB object code size  1.4/0.6/[0.5]
Matrix Compiler2: 8.25 KB object code size  0.6/0.7/[0.4]

