Circuit: * C:\Users\PC\Documents\GitHub\Binary_Multiplier_SIMULINK\Delay_Power_Diss\45nm\InXA3 - Copy\InXA4_45nm.asc

WARNING: Node N001 is floating.
WARNING: Node NC_01 is floating.
WARNING: Node NC_02 is floating.
WARNING: Node N006 is floating.
WARNING: Node N009 is floating.

WARNING: Less than two connections to node NC_01.  This node is used by M9.
WARNING: Less than two connections to node NC_02.  This node is used by M10.
WARNING: Less than two connections to node N006.  This node is used by M11.
WARNING: Less than two connections to node N009.  This node is used by M12.
Direct Newton iteration for .op point succeeded.

Date: Sun Mar 06 19:56:54 2022
Total elapsed time: 0.102 seconds.

tnom = 27
temp = 27
method = modified trap
totiter = 2950
traniter = 2907
tranpoints = 1232
accept = 1189
rejected = 43
matrix size = 68
fillins = 14
solver = Normal
Matrix Compiler1: 9.97 KB object code size  1.5/0.7/[0.6]
Matrix Compiler2: 8.60 KB object code size  0.6/0.8/[0.4]

