Circuit: * C:\Users\PC\Documents\GitHub\Binary_Multiplier_SIMULINK\Delay_Power_Diss\45nm\XA12T\XA12T_45nm.asc

WARNING: Node N005 is floating.
WARNING: Node N018 is floating.
WARNING: Node N019 is floating.
WARNING: Node N008 is floating.
WARNING: Node N016 is floating.
WARNING: Node N004 is floating.
WARNING: Node N013 is floating.
WARNING: Node N017 is floating.
WARNING: Node N010 is floating.
WARNING: Node N014 is floating.

WARNING: Less than two connections to node N005.  This node is used by M6.
WARNING: Less than two connections to node N018.  This node is used by M9.
WARNING: Less than two connections to node N019.  This node is used by M10.
WARNING: Less than two connections to node N008.  This node is used by M11.
WARNING: Less than two connections to node N016.  This node is used by M12.
WARNING: Less than two connections to node N004.  This node is used by M16.
WARNING: Less than two connections to node N013.  This node is used by M17.
WARNING: Less than two connections to node N017.  This node is used by M18.
WARNING: Less than two connections to node N010.  This node is used by M20.
WARNING: Less than two connections to node N014.  This node is used by M21.
Direct Newton iteration failed to find .op point.  (Use ".option noopiter" to skip.)
Starting Gmin stepping
Gmin = 10
Gmin = 1.07374
Gmin = 0.115292
Gmin = 0.0123794
Gmin = 0.00132923
Gmin = 0.000142725
Gmin = 1.5325e-005
Gmin = 1.6455e-006
Gmin = 1.76685e-007
Gmin = 1.89714e-008
Gmin = 2.03704e-009
Gmin = 2.18725e-010
Gmin = 2.34854e-011
Gmin = 2.52173e-012
Gmin = 2.70769e-013
Gmin = 0
Gmin stepping succeeded in finding the operating point.


Date: Thu Apr 07 14:23:01 2022
Total elapsed time: 0.187 seconds.

tnom = 27
temp = 27
method = modified trap
totiter = 3462
traniter = 2986
tranpoints = 1222
accept = 1183
rejected = 39
matrix size = 113
fillins = 12
solver = Normal
Thread vector: 22.7/11.8[2] 3.9/1.8[2] 1.2/1.1[1] 0.4/0.6[1]  2592/500
Matrix Compiler1: 15.38 KB object code size  2.4/1.1/[0.9]
Matrix Compiler2: 13.77 KB object code size  1.3/1.6/[0.7]

