Circuit: * C:\Users\PC\Documents\GitHub\Binary_Multiplier_SIMULINK\Delay_Power_Diss\45nm\XA12T\XA12T_45nm.asc

WARNING: Node NC_01 is floating.
WARNING: Node NC_02 is floating.
WARNING: Node N005 is floating.
WARNING: Node N008 is floating.

WARNING: Less than two connections to node NC_01.  This node is used by M9.
WARNING: Less than two connections to node NC_02.  This node is used by M10.
WARNING: Less than two connections to node N005.  This node is used by M11.
WARNING: Less than two connections to node N008.  This node is used by M12.
Direct Newton iteration failed to find .op point.  (Use ".option noopiter" to skip.)
Starting Gmin stepping
Gmin = 10
Gmin = 1.07374
Gmin = 0.115292
Gmin = 0.0123794
Gmin = 0.00132923
Gmin = 0.000142725
Gmin = 1.5325e-005
Gmin = 1.6455e-006
Gmin = 1.76685e-007
Gmin = 1.89714e-008
Gmin = 2.03704e-009
Gmin = 2.18725e-010
Gmin = 2.34854e-011
Gmin = 2.52173e-012
Gmin = 2.70769e-013
Gmin = 0
Gmin stepping succeeded in finding the operating point.


Date: Thu Mar 10 14:14:39 2022
Total elapsed time: 0.143 seconds.

tnom = 27
temp = 27
method = modified trap
totiter = 3342
traniter = 2915
tranpoints = 1230
accept = 1184
rejected = 46
matrix size = 67
fillins = 0
solver = Normal
Matrix Compiler1: 8.75 KB object code size  1.4/0.6/[0.5]
Matrix Compiler2: 8.33 KB object code size  0.8/0.8/[0.5]

