Circuit: * C:\Users\PC\Documents\GitHub\Binary_Multiplier_SIMULINK\Delay_Power_Diss\32nm\AMA2\AMA2_32nm.asc

WARNING: Node N001 is floating.
WARNING: Node N002 is floating.
WARNING: Node N005 is floating.
WARNING: Node N006 is floating.
WARNING: Node N011 is floating.
WARNING: Node N012 is floating.
WARNING: Node N007 is floating.
WARNING: Node N008 is floating.

WARNING: Less than two connections to node N001.  This node is used by M12.
WARNING: Less than two connections to node N002.  This node is used by M8.
WARNING: Less than two connections to node N005.  This node is used by M11.
WARNING: Less than two connections to node N006.  This node is used by M13.
WARNING: Less than two connections to node N011.  This node is used by M1.
WARNING: Less than two connections to node N012.  This node is used by M2.
WARNING: Less than two connections to node N007.  This node is used by M5.
WARNING: Less than two connections to node N008.  This node is used by M6.
Direct Newton iteration failed to find .op point.  (Use ".option noopiter" to skip.)
Starting Gmin stepping
Gmin = 10
Gmin = 1.07374
Gmin = 0.115292
Gmin = 0.0123794
Gmin = 0.00132923
Gmin = 0.000142725
Gmin = 1.5325e-005
Gmin = 1.6455e-006
Gmin = 1.76685e-007
Gmin = 1.89714e-008
Gmin = 2.03704e-009
Gmin = 2.18725e-010
Gmin = 2.34854e-011
Gmin = 2.52173e-012
Gmin = 2.70769e-013
Gmin = 0
Gmin stepping succeeded in finding the operating point.


Date: Thu Feb 17 11:20:12 2022
Total elapsed time: 0.157 seconds.

tnom = 27
temp = 27
method = modified trap
totiter = 3820
traniter = 3340
tranpoints = 1222
accept = 1178
rejected = 44
matrix size = 79
fillins = 0
solver = Normal
Matrix Compiler1: 9.92 KB object code size  1.5/0.7/[0.5]
Matrix Compiler2: 9.58 KB object code size  0.8/1.1/[0.5]

