Circuit: * C:\Users\PC\Documents\GitHub\Binary_Multiplier_SIMULINK\Delay_Power_Diss\22nm\AMA1\AMA1_22nm.asc

WARNING: Node N002 is floating.
WARNING: Node N003 is floating.
WARNING: Node N004 is floating.
WARNING: Node N009 is floating.
WARNING: Node N008 is floating.
WARNING: Node N012 is floating.
WARNING: Node N017 is floating.
WARNING: Node N011 is floating.

WARNING: Less than two connections to node N002.  This node is used by M4.
WARNING: Less than two connections to node N003.  This node is used by M8.
WARNING: Less than two connections to node N004.  This node is used by M11.
WARNING: Less than two connections to node N009.  This node is used by M15.
WARNING: Less than two connections to node N008.  This node is used by M17.
WARNING: Less than two connections to node N012.  This node is used by M18.
WARNING: Less than two connections to node N017.  This node is used by M19.
WARNING: Less than two connections to node N011.  This node is used by M20.
Direct Newton iteration for .op point succeeded.

Date: Thu Feb 17 11:35:26 2022
Total elapsed time: 0.141 seconds.

tnom = 27
temp = 27
method = modified trap
totiter = 3412
traniter = 3362
tranpoints = 1219
accept = 1174
rejected = 45
matrix size = 107
fillins = 24
solver = Normal
Thread vector: 20.0/12.6[2] 3.6/1.8[2] 0.9/0.8[2] 0.4/0.6[1]  2592/500
Matrix Compiler1: 15.34 KB object code size  2.3/1.1/[0.8]
Matrix Compiler2: 13.72 KB object code size  1.0/1.3/[0.6]

