Circuit: * C:\Users\PC\Documents\GitHub\Binary_Multiplier_SIMULINK\Delay_Power_Diss\28nm\AMA1\AMA1_45nm.asc

WARNING: Node N008 is floating.
WARNING: Node N002 is floating.
WARNING: Node NC_02 is floating.
WARNING: Node N003 is floating.
WARNING: Node N004 is floating.

WARNING: Less than two connections to node NC_01.  This node is used by M1.
WARNING: Less than two connections to node N008.  This node is used by M8.
WARNING: Less than two connections to node N002.  This node is used by M11.
WARNING: Less than two connections to node NC_02.  This node is used by M15.
WARNING: Less than two connections to node NC_03.  This node is used by M14.
WARNING: Less than two connections to node N003.  This node is used by M3.
WARNING: Less than two connections to node N004.  This node is used by M4.
Direct Newton iteration failed to find .op point.  (Use ".option noopiter" to skip.)
Starting Gmin stepping
Gmin = 10
Gmin = 1.07374
Gmin = 0.115292
Gmin = 0.0123794
Gmin = 0.00132923
Gmin = 0.000142725
Gmin = 1.5325e-005
Gmin = 1.6455e-006
Gmin = 1.76685e-007
Gmin = 1.89714e-008
Gmin = 2.03704e-009
Gmin = 2.18725e-010
Gmin = 2.34854e-011
Gmin = 2.52173e-012
Gmin = 2.70769e-013
Gmin = 0
Gmin stepping succeeded in finding the operating point.


Date: Tue Feb 08 16:03:21 2022
Total elapsed time: 0.171 seconds.

tnom = 27
temp = 27
method = modified trap
totiter = 3698
traniter = 3216
tranpoints = 1298
accept = 1237
rejected = 61
matrix size = 87
fillins = 4
solver = Normal
Matrix Compiler1: 11.40 KB object code size  1.9/0.8/[0.6]
Matrix Compiler2: 10.76 KB object code size  1.0/1.3/[0.5]

