Circuit: * C:\Users\PC\Documents\GitHub\Binary_Multiplier_SIMULINK\Delay_Power_Diss\22nm\AMA1\AMA1_32nm.asc

WARNING: Node N002 is floating.
WARNING: Node N003 is floating.
WARNING: Node N004 is floating.
WARNING: Node N009 is floating.
WARNING: Node N008 is floating.
WARNING: Node N012 is floating.
WARNING: Node N017 is floating.
WARNING: Node N011 is floating.

WARNING: Less than two connections to node N002.  This node is used by M4.
WARNING: Less than two connections to node N003.  This node is used by M8.
WARNING: Less than two connections to node N004.  This node is used by M11.
WARNING: Less than two connections to node N009.  This node is used by M15.
WARNING: Less than two connections to node N008.  This node is used by M17.
WARNING: Less than two connections to node N012.  This node is used by M18.
WARNING: Less than two connections to node N017.  This node is used by M19.
WARNING: Less than two connections to node N011.  This node is used by M20.
Direct Newton iteration for .op point succeeded.

Date: Wed Feb 16 14:45:32 2022
Total elapsed time: 0.149 seconds.

tnom = 27
temp = 27
method = modified trap
totiter = 3459
traniter = 3420
tranpoints = 1223
accept = 1179
rejected = 44
matrix size = 107
fillins = 30
solver = Normal
Thread vector: 20.2/14.4[2] 2.7/1.6[2] 1.0/0.8[2] 0.4/0.5[1]  2592/500
Matrix Compiler1: 15.76 KB object code size  2.4/1.1/[0.9]
Matrix Compiler2: 13.82 KB object code size  1.0/1.3/[0.6]

