Circuit: * C:\Users\PC\Documents\GitHub\Binary_Multiplier_SIMULINK\Delay_Power_Diss\32nm\XA12T\XA12T_32nm.asc

WARNING: Node N001 is floating.
WARNING: Node N006 is floating.
WARNING: Node N009 is floating.

WARNING: Less than two connections to node N006.  This node is used by M11.
WARNING: Less than two connections to node N009.  This node is used by M12.
Direct Newton iteration for .op point succeeded.

Date: Mon Mar 07 14:20:46 2022
Total elapsed time: 0.114 seconds.

tnom = 27
temp = 27
method = modified trap
totiter = 2911
traniter = 2879
tranpoints = 1215
accept = 1175
rejected = 40
matrix size = 66
fillins = 12
solver = Normal
Matrix Compiler1: 9.40 KB object code size  1.9/1.0/[0.6]
Matrix Compiler2: 8.29 KB object code size  1.0/1.1/[0.5]

