Circuit: * C:\Users\PC\Documents\GitHub\Binary_Multiplier_SIMULINK\Delay_Power_Diss\32nm\XA12T\XA12T_45nm.asc

WARNING: Node N004 is floating.
WARNING: Node N003 is floating.
WARNING: Node N016 is floating.
WARNING: Node N012 is floating.
WARNING: Node N013 is floating.
WARNING: Node N009 is floating.
WARNING: Node N007 is floating.
WARNING: Node N017 is floating.
WARNING: Node N018 is floating.
WARNING: Node N015 is floating.

WARNING: Less than two connections to node N004.  This node is used by M14.
WARNING: Less than two connections to node N003.  This node is used by M16.
WARNING: Less than two connections to node N016.  This node is used by M18.
WARNING: Less than two connections to node N012.  This node is used by M17.
WARNING: Less than two connections to node N013.  This node is used by M21.
WARNING: Less than two connections to node N009.  This node is used by M20.
WARNING: Less than two connections to node N007.  This node is used by M11.
WARNING: Less than two connections to node N017.  This node is used by M9.
WARNING: Less than two connections to node N018.  This node is used by M10.
WARNING: Less than two connections to node N015.  This node is used by M12.
Direct Newton iteration failed to find .op point.  (Use ".option noopiter" to skip.)
Starting Gmin stepping
Gmin = 10
Gmin = 1.07374
Gmin = 0.115292
Gmin = 0.0123794
Gmin = 0.00132923
Gmin = 0.000142725
Gmin = 1.5325e-005
Gmin = 1.6455e-006
Gmin = 1.76685e-007
Gmin = 1.89714e-008
Gmin = 2.03704e-009
Gmin = 2.18725e-010
Gmin = 2.34854e-011
Gmin = 2.52173e-012
Gmin = 2.70769e-013
Gmin = 0
Gmin stepping succeeded in finding the operating point.


Date: Wed Apr 06 16:59:58 2022
Total elapsed time: 0.178 seconds.

tnom = 27
temp = 27
method = modified trap
totiter = 3734
traniter = 3270
tranpoints = 1226
accept = 1186
rejected = 40
matrix size = 117
fillins = 4
solver = Normal
Thread vector: 23.5/12.6[2] 4.4/2.7[2] 1.1/1.3[1] 0.4/0.5[1]  2592/500
Matrix Compiler1: 15.81 KB object code size  3.6/1.4/[1.0]
Matrix Compiler2: 14.37 KB object code size  1.3/1.7/[0.7]

