Circuit: * C:\Users\PC\Documents\GitHub\Binary_Multiplier_SIMULINK\Delay_Power_Diss\32nm\XA12T\XA12T_32nm.asc

WARNING: Node N005 is floating.
WARNING: Node N008 is floating.

WARNING: Less than two connections to node N005.  This node is used by M11.
WARNING: Less than two connections to node N008.  This node is used by M12.
Direct Newton iteration for .op point succeeded.

Date: Tue Mar 08 01:38:48 2022
Total elapsed time: 0.122 seconds.

tnom = 27
temp = 27
method = modified trap
totiter = 3024
traniter = 2979
tranpoints = 1215
accept = 1174
rejected = 41
matrix size = 65
fillins = 2
solver = Normal
Matrix Compiler1: 8.46 KB object code size  1.3/0.6/[0.5]
Matrix Compiler2: 8.09 KB object code size  0.5/0.7/[0.4]

