Circuit: * C:\Users\PC\Documents\GitHub\Binary_Multiplier_SIMULINK\Delay_Power_Diss\45nm\28T\28T_45nm.asc

WARNING: Node N019 is floating.
WARNING: Node N020 is floating.
WARNING: Node N021 is floating.
WARNING: Node N003 is floating.
WARNING: Node N004 is floating.
WARNING: Node N002 is floating.
WARNING: Node N007 is floating.
WARNING: Node N012 is floating.
WARNING: Node N013 is floating.
WARNING: Node N011 is floating.

WARNING: Less than two connections to node N019.  This node is used by M9.
WARNING: Less than two connections to node N020.  This node is used by M21.
WARNING: Less than two connections to node N021.  This node is used by M22.
WARNING: Less than two connections to node N003.  This node is used by M4.
WARNING: Less than two connections to node N004.  This node is used by M7.
WARNING: Less than two connections to node N002.  This node is used by M13.
WARNING: Less than two connections to node N007.  This node is used by M25.
WARNING: Less than two connections to node N012.  This node is used by M26.
WARNING: Less than two connections to node N013.  This node is used by M27.
WARNING: Less than two connections to node N011.  This node is used by M28.
Direct Newton iteration failed to find .op point.  (Use ".option noopiter" to skip.)
Starting Gmin stepping
Gmin = 10
Gmin = 1.07374
Gmin = 0.115292
Gmin = 0.0123794
Gmin = 0.00132923
Gmin = 0.000142725
Gmin = 1.5325e-005
Gmin = 1.6455e-006
Gmin = 1.76685e-007
Gmin = 1.89714e-008
Gmin = 2.03704e-009
Gmin = 2.18725e-010
Gmin = 2.34854e-011
Gmin = 2.52173e-012
Gmin = 2.70769e-013
Gmin = 0
Gmin stepping succeeded in finding the operating point.


Date: Tue Mar 29 15:20:21 2022
Total elapsed time: 0.184 seconds.

tnom = 27
temp = 27
method = modified trap
totiter = 3949
traniter = 3480
tranpoints = 1221
accept = 1176
rejected = 45
matrix size = 144
fillins = 0
solver = Normal
Thread vector: 28.4/14.3[2] 3.5/2.1[2] 1.7/1.2[2] 0.5/0.7[1]  2592/500
Matrix Compiler1: 19.09 KB object code size  3.4/1.4/[1.0]
Matrix Compiler2: 18.29 KB object code size  1.8/1.8/[0.9]

