Circuit: * C:\Users\PC\Documents\GitHub\Binary_Multiplier_SIMULINK\Delay_Power_Diss\45nm\28T\28T_45nm.asc

WARNING: Node N021 is floating.
WARNING: Node N022 is floating.
WARNING: Node N023 is floating.
WARNING: Node N003 is floating.
WARNING: Node N004 is floating.
WARNING: Node N002 is floating.
WARNING: Node N007 is floating.
WARNING: Node N013 is floating.
WARNING: Node N015 is floating.
WARNING: Node N012 is floating.

WARNING: Less than two connections to node N021.  This node is used by M9.
WARNING: Less than two connections to node N022.  This node is used by M21.
WARNING: Less than two connections to node N023.  This node is used by M22.
WARNING: Less than two connections to node N003.  This node is used by M4.
WARNING: Less than two connections to node N004.  This node is used by M7.
WARNING: Less than two connections to node N002.  This node is used by M13.
WARNING: Less than two connections to node N007.  This node is used by M25.
WARNING: Less than two connections to node N013.  This node is used by M26.
WARNING: Less than two connections to node N015.  This node is used by M27.
WARNING: Less than two connections to node N012.  This node is used by M28.
Direct Newton iteration failed to find .op point.  (Use ".option noopiter" to skip.)
Starting Gmin stepping
Gmin = 10
Gmin = 1.07374
Gmin = 0.115292
Gmin = 0.0123794
Gmin = 0.00132923
Gmin = 0.000142725
Gmin = 1.5325e-005
Gmin = 1.6455e-006
Gmin = 1.76685e-007
Gmin = 1.89714e-008
Gmin = 2.03704e-009
Gmin = 2.18725e-010
Gmin = 2.34854e-011
Gmin = 2.52173e-012
Gmin = 2.70769e-013
Gmin = 0
Gmin stepping succeeded in finding the operating point.


Date: Wed Feb 16 12:01:39 2022
Total elapsed time: 0.198 seconds.

tnom = 27
temp = 27
method = modified trap
totiter = 3943
traniter = 3454
tranpoints = 1240
accept = 1187
rejected = 53
matrix size = 144
fillins = 10
solver = Normal
Thread vector: 29.0/15.5[2] 5.0/2.3[2] 1.4/1.2[2] 0.5/0.7[1]  2592/500
Matrix Compiler1: 19.57 KB object code size  3.4/1.4/[1.0]
Matrix Compiler2: 18.44 KB object code size  1.8/2.2/[1.0]

