Circuit: * C:\Users\PC\Documents\GitHub\Binary_Multiplier_SIMULINK\Delay_Power_Diss\45nm\InXA3\InXA3_45nm.asc

WARNING: Node N005 is floating.
WARNING: Node N002 is floating.
WARNING: Node N004 is floating.
WARNING: Node N001 is floating.

WARNING: Less than two connections to node N005.  This node is used by M2.
WARNING: Less than two connections to node N002.  This node is used by M5.
WARNING: Less than two connections to node N004.  This node is used by M1.
WARNING: Less than two connections to node N001.  This node is used by M6.
Direct Newton iteration for .op point succeeded.

Date: Tue Mar 01 19:06:44 2022
Total elapsed time: 0.063 seconds.

tnom = 27
temp = 27
method = modified trap
totiter = 2752
traniter = 2736
tranpoints = 1246
accept = 1198
rejected = 48
matrix size = 39
fillins = 8
solver = Normal
Matrix Compiler1: 4.83 KB object code size  0.7/0.3/[0.3]
Matrix Compiler2: 4.64 KB object code size  0.3/0.4/[0.2]

