Circuit: * C:\Users\PC\Documents\GitHub\Binary_Multiplier_SIMULINK\Delay_Power_Diss\45nm\InXA3\InXA3_23nm.asc

WARNING: Node N003 is floating.
WARNING: Node N001 is floating.

WARNING: Less than two connections to node N003.  This node is used by M2.
WARNING: Less than two connections to node N001.  This node is used by M7.
Direct Newton iteration for .op point succeeded.

Date: Fri Feb 11 17:49:58 2022
Total elapsed time: 0.076 seconds.

tnom = 27
temp = 27
method = modified trap
totiter = 2909
traniter = 2877
tranpoints = 1222
accept = 1175
rejected = 47
matrix size = 37
fillins = 2
solver = Normal
Matrix Compiler1: 4.25 KB object code size  0.7/0.3/[0.2]
Matrix Compiler2: 4.46 KB object code size  0.3/0.4/[0.2]

