Circuit: * C:\Users\PC\Documents\GitHub\Binary_Multiplier_SIMULINK\Delay_Power_Diss\22nm\28T\Draft1.asc

WARNING: Node N002 is floating.

WARNING: Less than two connections to node N002.  This node is used by M1.
Direct Newton iteration for .op point succeeded.

Date: Tue Feb 15 11:43:24 2022
Total elapsed time: 0.032 seconds.

tnom = 27
temp = 27
method = trap
totiter = 340
traniter = 0
tranpoints = 0
accept = 0
rejected = 0
matrix size = 14
fillins = 0
solver = Normal
Matrix Compiler1:      67 opcodes  0.2/[0.1]/0.1
Matrix Compiler2: 1.44 KB object code size  0.1/0.1/[0.1]

