Circuit: * C:\Users\PC\Documents\GitHub\Binary_Multiplier_SIMULINK\Delay_Power_Diss\32nm\InXA3\InXA3_32nm.asc

WARNING: Node N003 is floating.
WARNING: Node N001 is floating.

WARNING: Less than two connections to node N003.  This node is used by M2.
WARNING: Less than two connections to node N001.  This node is used by M7.
Direct Newton iteration for .op point succeeded.

Date: Wed Feb 09 16:09:44 2022
Total elapsed time: 0.070 seconds.

tnom = 27
temp = 27
method = modified trap
totiter = 2999
traniter = 2981
tranpoints = 1244
accept = 1197
rejected = 47
matrix size = 37
fillins = 2
solver = Normal
Matrix Compiler1: 4.25 KB object code size  0.7/0.3/[0.3]
Matrix Compiler2: 4.46 KB object code size  0.3/0.4/[0.2]

