Circuit: * C:\Users\PC\Documents\GitHub\Binary_Multiplier_SIMULINK\Delay_Power_Diss\22nm\InXA3\InXA3_22n.asc

WARNING: Node N003 is floating.
WARNING: Node N001 is floating.

WARNING: Less than two connections to node N003.  This node is used by M2.
WARNING: Less than two connections to node N001.  This node is used by M6.
Direct Newton iteration for .op point succeeded.

Date: Wed Feb 16 14:55:00 2022
Total elapsed time: 0.074 seconds.

tnom = 27
temp = 27
method = modified trap
totiter = 2854
traniter = 2819
tranpoints = 1211
accept = 1173
rejected = 38
matrix size = 37
fillins = 2
solver = Normal
Matrix Compiler1: 4.25 KB object code size  0.7/0.3/[0.3]
Matrix Compiler2: 4.46 KB object code size  0.3/0.4/[0.3]

