Circuit: * C:\Users\PC\Documents\GitHub\Binary_Multiplier_SIMULINK\Delay_Power_Diss\22nm\InXA3\InXA3_22nm.asc

WARNING: Node N003 is floating.
WARNING: Node N001 is floating.

WARNING: Less than two connections to node N003.  This node is used by M2.
WARNING: Less than two connections to node N001.  This node is used by M6.
Direct Newton iteration for .op point succeeded.

Date: Fri Apr 01 20:19:43 2022
Total elapsed time: 0.058 seconds.

tnom = 27
temp = 27
method = modified trap
totiter = 2862
traniter = 2819
tranpoints = 1245
accept = 1196
rejected = 49
matrix size = 37
fillins = 5
solver = Normal
Matrix Compiler1: 4.25 KB object code size  0.7/0.3/[0.2]
Matrix Compiler2: 4.52 KB object code size  0.3/0.5/[0.3]

