Circuit: * C:\Users\PC\Documents\GitHub\Binary_Multiplier_SIMULINK\Delay_Power_Diss\45nm\InXA2\InXA2_32nm.asc

WARNING: Node N003 is floating.

WARNING: Less than two connections to node N003.  This node is used by M2.
Direct Newton iteration for .op point succeeded.

Date: Fri Feb 11 17:50:38 2022
Total elapsed time: 0.091 seconds.

tnom = 27
temp = 27
method = modified trap
totiter = 2997
traniter = 2967
tranpoints = 1204
accept = 1169
rejected = 35
matrix size = 45
fillins = 0
solver = Normal
Matrix Compiler1: 5.11 KB object code size  0.8/0.4/[0.3]
Matrix Compiler2: 5.56 KB object code size  0.3/0.5/[0.3]

