Circuit: * C:\Users\PC\Documents\GitHub\Binary_Multiplier_SIMULINK\Delay_Power_Diss\45nm\InXA2\InXA2_45nm.asc

WARNING: Node N003 is floating.

WARNING: Less than two connections to node N003.  This node is used by M2.
Direct Newton iteration for .op point succeeded.

Date: Thu Feb 17 11:39:44 2022
Total elapsed time: 0.094 seconds.

tnom = 27
temp = 27
method = modified trap
totiter = 2987
traniter = 2958
tranpoints = 1231
accept = 1179
rejected = 52
matrix size = 45
fillins = 0
solver = Normal
Matrix Compiler1: 5.09 KB object code size  0.8/0.4/[0.3]
Matrix Compiler2: 5.57 KB object code size  0.3/0.5/[0.3]

