Circuit: * C:\Users\PC\Documents\GitHub\Binary_Multiplier_SIMULINK\Delay_Power_Diss\45nm\InXA2\InXA2_45nm.asc

WARNING: Node N003 is floating.
WARNING: Node SUM is floating.

WARNING: Less than two connections to node N003.  This node is used by M2.
WARNING: Less than two connections to node SUM.  This node is used by M8.
Direct Newton iteration for .op point succeeded.

Date: Wed Feb 09 15:34:18 2022
Total elapsed time: 0.079 seconds.

tnom = 27
temp = 27
method = modified trap
totiter = 2995
traniter = 2968
tranpoints = 1293
accept = 1229
rejected = 64
matrix size = 45
fillins = 0
solver = Normal
Matrix Compiler1: 5.11 KB object code size  0.8/0.4/[0.3]
Matrix Compiler2: 5.56 KB object code size  0.4/0.5/[0.3]

