Circuit: * C:\Users\PC\Documents\GitHub\Binary_Multiplier_SIMULINK\Delay_Power_Diss\32nm\AMA3\AMA3_32nm.asc

WARNING: Node N010 is floating.
WARNING: Node N001 is floating.
WARNING: Node N002 is floating.
WARNING: Node N005 is floating.
WARNING: Node N006 is floating.
WARNING: Node N011 is floating.
WARNING: Node N007 is floating.
WARNING: Node N008 is floating.

WARNING: Less than two connections to node N010.  This node is used by M1.
WARNING: Less than two connections to node N001.  This node is used by M12.
WARNING: Less than two connections to node N002.  This node is used by M4.
WARNING: Less than two connections to node N005.  This node is used by M8.
WARNING: Less than two connections to node N006.  This node is used by M9.
WARNING: Less than two connections to node N011.  This node is used by M5.
WARNING: Less than two connections to node N007.  This node is used by M6.
WARNING: Less than two connections to node N008.  This node is used by M10.
Direct Newton iteration failed to find .op point.  (Use ".option noopiter" to skip.)
Starting Gmin stepping
Gmin = 10
Gmin = 1.07374
Gmin = 0.115292
Gmin = 0.0123794
Gmin = 0.00132923
Gmin = 0.000142725
Gmin = 1.5325e-005
Gmin = 1.6455e-006
Gmin = 1.76685e-007
Gmin = 1.89714e-008
Gmin = 2.03704e-009
Gmin = 2.18725e-010
Gmin = 2.34854e-011
Gmin = 2.52173e-012
Gmin = 2.70769e-013
Gmin = 0
Gmin stepping succeeded in finding the operating point.


Date: Thu Feb 17 11:23:20 2022
Total elapsed time: 0.141 seconds.

tnom = 27
temp = 27
method = modified trap
totiter = 3723
traniter = 3243
tranpoints = 1222
accept = 1177
rejected = 45
matrix size = 66
fillins = 0
solver = Normal
Matrix Compiler1: 8.31 KB object code size  1.2/0.6/[0.5]
Matrix Compiler2: 7.88 KB object code size  0.7/0.9/[0.4]

