Circuit: * C:\Users\PC\Documents\GitHub\Binary_Multiplier_SIMULINK\Delay_Power_Diss\22nm\InXA2\InXA2_22nm.asc

WARNING: Node N006 is floating.
WARNING: Node N002 is floating.
WARNING: Node N005 is floating.
WARNING: Node N001 is floating.
WARNING: Node N008 is floating.
WARNING: Node N007 is floating.

WARNING: Less than two connections to node N006.  This node is used by M2.
WARNING: Less than two connections to node N002.  This node is used by M5.
WARNING: Less than two connections to node N005.  This node is used by M1.
WARNING: Less than two connections to node N001.  This node is used by M3.
WARNING: Less than two connections to node N008.  This node is used by M7.
WARNING: Less than two connections to node N007.  This node is used by M8.
Direct Newton iteration failed to find .op point.  (Use ".option noopiter" to skip.)
Starting Gmin stepping
Gmin = 10
Gmin = 1.07374
Gmin = 0.115292
Gmin = 0.0123794
Gmin = 0.00132923
Gmin = 0.000142725
Gmin = 1.5325e-005
Gmin = 1.6455e-006
Gmin = 1.76685e-007
Gmin = 1.89714e-008
Gmin = 2.03704e-009
Gmin = 2.18725e-010
Gmin = 2.34854e-011
Gmin = 2.52173e-012
Gmin = 2.70769e-013
Gmin = 0
Gmin stepping succeeded in finding the operating point.


Date: Thu Feb 17 11:16:32 2022
Total elapsed time: 0.111 seconds.

tnom = 27
temp = 27
method = modified trap
totiter = 3358
traniter = 2876
tranpoints = 1224
accept = 1175
rejected = 49
matrix size = 50
fillins = 4
solver = Normal
Matrix Compiler1: 6.18 KB object code size  0.9/0.4/[0.4]
Matrix Compiler2: 6.09 KB object code size  0.5/0.6/[0.3]

