Circuit: * C:\Users\PC\Documents\GitHub\Binary_Multiplier_SIMULINK\Delay_Power_Diss\45nm\AMA1\AMA1_45nm.asc

WARNING: Node N002 is floating.
WARNING: Node N003 is floating.
WARNING: Node N004 is floating.
WARNING: Node N009 is floating.
WARNING: Node N008 is floating.
WARNING: Node N012 is floating.
WARNING: Node N018 is floating.
WARNING: Node N011 is floating.

WARNING: Less than two connections to node N002.  This node is used by M4.
WARNING: Less than two connections to node N003.  This node is used by M8.
WARNING: Less than two connections to node N004.  This node is used by M11.
WARNING: Less than two connections to node N009.  This node is used by M15.
WARNING: Less than two connections to node N008.  This node is used by M17.
WARNING: Less than two connections to node N012.  This node is used by M18.
WARNING: Less than two connections to node N018.  This node is used by M19.
WARNING: Less than two connections to node N011.  This node is used by M20.
Direct Newton iteration failed to find .op point.  (Use ".option noopiter" to skip.)
Starting Gmin stepping
Gmin = 10
Gmin = 1.07374
Gmin = 0.115292
Gmin = 0.0123794
Gmin = 0.00132923
Gmin = 0.000142725
Gmin = 1.5325e-005
Gmin = 1.6455e-006
Gmin = 1.76685e-007
Gmin = 1.89714e-008
Gmin = 2.03704e-009
Gmin = 2.18725e-010
Gmin = 2.34854e-011
Gmin = 2.52173e-012
Gmin = 2.70769e-013
Gmin = 0
Gmin stepping succeeded in finding the operating point.


Date: Thu Feb 17 11:32:04 2022
Total elapsed time: 0.172 seconds.

tnom = 27
temp = 27
method = modified trap
totiter = 3956
traniter = 3492
tranpoints = 1230
accept = 1186
rejected = 44
matrix size = 107
fillins = 0
solver = Normal
Thread vector: 20.1/10.2[2] 2.6/1.8[2] 1.0/1.0[1] 0.4/0.5[1]  2592/500
Matrix Compiler1: 14.10 KB object code size  2.3/1.0/[0.8]
Matrix Compiler2: 13.32 KB object code size  1.2/1.3/[0.6]

