Circuit: * C:\Users\PC\Documents\GitHub\Binary_Multiplier_SIMULINK\Delay_Power_Diss\45nm\AMA1\AMA1_45nm.asc

WARNING: Node N008 is floating.
WARNING: Node N002 is floating.
WARNING: Node N003 is floating.
WARNING: Node N004 is floating.

WARNING: Less than two connections to node NC_01.  This node is used by M1.
WARNING: Less than two connections to node N008.  This node is used by M8.
WARNING: Less than two connections to node N002.  This node is used by M11.
WARNING: Less than two connections to node NC_02.  This node is used by M14.
WARNING: Less than two connections to node N003.  This node is used by M3.
WARNING: Less than two connections to node N004.  This node is used by M4.
Direct Newton iteration for .op point succeeded.

Date: Wed Feb 09 14:48:06 2022
Total elapsed time: 0.138 seconds.

tnom = 27
temp = 27
method = modified trap
totiter = 3318
traniter = 3286
tranpoints = 1296
accept = 1233
rejected = 63
matrix size = 86
fillins = 20
solver = Normal
Matrix Compiler1: 11.95 KB object code size  1.9/0.8/[0.6]
Matrix Compiler2: 11.00 KB object code size  0.8/0.9/[0.5]

