Circuit: * C:\Users\PC\Documents\GitHub\Binary_Multiplier_SIMULINK\Delay_Power_Diss\45nm\InXA1\Draft1.asc

.dc sweep increment has wrong sign -- fixing...

Date: Wed Feb 09 15:09:49 2022
Total elapsed time: 0.041 seconds.

tnom = 27
temp = 27
method = trap
totiter = 1022
traniter = 0
tranpoints = 0
accept = 0
rejected = 0
matrix size = 4
fillins = 0
solver = Normal
Matrix Compiler1:       7 opcodes  0.0/[0.0]/0.0
Matrix Compiler2: 216 bytes object code size  0.0/0.0/[0.0]

