Circuit: * C:\Users\PC\Documents\GitHub\Binary_Multiplier_SIMULINK\Delay_Power_Diss\45nm\InXA1\InXA1_45nm.asc

Direct Newton iteration for .op point succeeded.

Date: Wed Feb 09 15:46:27 2022
Total elapsed time: 0.064 seconds.

tnom = 27
temp = 27
method = modified trap
totiter = 3221
traniter = 3176
tranpoints = 1260
accept = 1212
rejected = 48
matrix size = 35
fillins = 0
solver = Normal
Matrix Compiler1: 3.77 KB object code size  0.6/0.3/[0.2]
Matrix Compiler2: 4.23 KB object code size  0.3/0.4/[0.2]

