Circuit: * C:\Users\PC\Documents\GitHub\Binary_Multiplier_SIMULINK\Delay_Power_Diss\45nm\InXA1\InXA1_45nm.asc

Direct Newton iteration for .op point succeeded.

Date: Thu Feb 17 11:38:28 2022
Total elapsed time: 0.062 seconds.

tnom = 27
temp = 27
method = modified trap
totiter = 2803
traniter = 2789
tranpoints = 1250
accept = 1199
rejected = 51
matrix size = 35
fillins = 0
solver = Normal
Matrix Compiler1: 3.78 KB object code size  0.6/0.3/[0.2]
Matrix Compiler2: 4.23 KB object code size  0.3/0.4/[0.2]

