Circuit: * C:\Users\PC\Documents\GitHub\Binary_Multiplier_SIMULINK\Delay_Power_Diss\45nm\InXA1\InXA1_45nm.asc

WARNING: Node N003 is floating.
WARNING: Node N005 is floating.
WARNING: Node N002 is floating.
WARNING: Node N004 is floating.

WARNING: Less than two connections to node N003.  This node is used by M4.
WARNING: Less than two connections to node N005.  This node is used by M3.
WARNING: Less than two connections to node N002.  This node is used by M5.
WARNING: Less than two connections to node N004.  This node is used by M6.
Direct Newton iteration for .op point succeeded.

Date: Tue Feb 08 16:06:51 2022
Total elapsed time: 0.073 seconds.

tnom = 27
temp = 27
method = modified trap
totiter = 2623
traniter = 2593
tranpoints = 1253
accept = 1204
rejected = 49
matrix size = 38
fillins = 6
solver = Normal
Matrix Compiler1: 3.75 KB object code size  0.6/0.3/[0.2]
Matrix Compiler2: 4.05 KB object code size  0.2/0.4/[0.2]

