Circuit: * C:\Users\PC\Documents\GitHub\Binary_Multiplier_SIMULINK\Delay_Power_Diss\22nm\InXA1\InXA1_22nm.asc

Direct Newton iteration for .op point succeeded.

Date: Fri Apr 01 18:31:17 2022
Total elapsed time: 0.099 seconds.

tnom = 27
temp = 27
method = modified trap
totiter = 2848
traniter = 2837
tranpoints = 1224
accept = 1178
rejected = 46
matrix size = 35
fillins = 0
solver = Normal
Matrix Compiler1: 3.78 KB object code size  0.6/0.3/[0.2]
Matrix Compiler2: 4.23 KB object code size  0.3/0.4/[0.2]

